test/test_files/validation_tests/case1354pegase_resqlim.m
function mpc = case1354pegase_resqlim
%CASE1354PEGASE_RESQLIM

%% MATPOWER Case Format : Version 2
mpc.version = '2';

%%-----  Power Flow Data  -----%%
%% system MVA base
mpc.baseMVA = 100;

%% bus data
%	bus_i	type	Pd	Qd	Gs	Bs	area	Vm	Va	baseKV	zone	Vmax	Vmin
mpc.bus = [
	3	1	151	48.8	0	4.69	0	1.01667005	-21.7963356	220	5	1.1	0.9;
	4	1	171.41	23.4	0	2.1	0	1.02603626	-6.94048224	220	5	1.1	0.9;
	10	1	134	24.7	0	12.44	0	1.03739934	-24.3170903	220	5	1.1	0.9;
	21	1	161.2	39.3	0	30.71	0	1.03522531	-21.9824505	220	5	1.1	0.9;
	22	1	0	-0	0	0.85	0	1.03361164	-18.5279167	220	5	1.1	0.9;
	26	1	167.3	54.8	0	110.54	0	1.03225775	-3.29142978	380	5	1.1	0.9;
	29	1	152.9	49.4	0	27.65	0	0.993330899	-13.7151554	380	5	1.1	0.9;
	44	1	-0	0	0	7.27	0	1.04475585	-22.2115787	220	5	1.1	0.9;
	53	1	48.65	16.1	0	7.14	0	1.06342864	-9.12317101	220	5	1.1	0.9;
	58	1	0	0	0	2.31	0	0.986242542	-15.6441257	380	5	1.1	0.9;
	59	1	119.2	20.7	0	3.31	0	1.02164585	-23.9539575	220	5	1.1	0.9;
	90	1	363.25	115.39	0	3.95	0	1.04042213	-27.7915393	220	5	1.1	0.9;
	96	1	-8.4	28.66	0	3.49	0	1.02963381	-15.6140227	220	5	1.1	0.9;
	113	1	-0	-0	0	6.532711	0	1.03053951	-14.306578	380	5	1.1	0.9;
	115	1	0	-0	0	4.21	0	1.06654333	-19.7700389	220	5	1.1	0.9;
	118	1	704.53	-35.33	0	13.102834	0	1.02024299	-11.3810159	380	5	1.1	0.9;
	124	2	0	0	0	0	0	1.081537	8.38736737	220	5	1.1	0.9;
	128	1	23.73	12.7	0	0.52	0	1.02006624	-16.1277795	220	5	1.1	0.9;
	145	1	38.34	5.6	0	7.64	0	1.03909547	-8.87888163	220	5	1.1	0.9;
	148	1	32.34	12	0	6.1	0	1.04156827	-7.94354464	220	5	1.1	0.9;
	150	2	0	0	0	0	0	1.062805	2.57930524	220	5	1.1	0.9;
	163	1	147.76	32.73	0	8.34	0	1.04214509	-10.6836156	220	5	1.1	0.9;
	171	1	100.8	13.2	0	5.24	0	1.06951751	-25.3130769	220	5	1.1	0.9;
	174	1	370.5	-17	0	9.91	0	1.07443436	-27.9648305	220	5	1.1	0.9;
	184	1	-0	-0	0	2.42	0	1.04243906	-12.1330927	220	5	1.1	0.9;
	188	1	36.84	13.9	0	3.3	0	1.01783085	-19.6151935	220	5	1.1	0.9;
	195	1	73.14	21.55	0	8.52	0	1.05633569	-8.57206606	220	5	1.1	0.9;
	196	1	0	-0	0	12.48	0	1.07341603	-26.3564862	220	5	1.1	0.9;
	198	1	39.74	11.8	0	1.44	0	1.01617484	-16.3704461	220	5	1.1	0.9;
	207	1	321.98	84.4	0	1.34	0	1.02642854	-13.7031171	220	5	1.1	0.9;
	216	1	155.6	54.7	0	2.21	0	1.03934137	-24.6242478	220	5	1.1	0.9;
	217	1	105.2	0.1	0	7.36	0	1.0427322	-2.64176708	220	5	1.1	0.9;
	218	1	69.83	15.12	0	2.23	0	1.04541034	-13.1404321	220	5	1.1	0.9;
	221	2	0	0	0	0	0	0.984682	-16.2791482	380	5	1.1	0.9;
	225	1	0	0	0	1.15	0	1.06350515	-20.160793	220	5	1.1	0.9;
	280	1	119.6	29.6	0	5.34	0	1.03446573	-11.2382291	220	5	1.1	0.9;
	283	1	27.33	11.9	0	1.17	0	1.03520469	-12.3919765	220	5	1.1	0.9;
	292	1	13.82	1.4	0	0.7	0	1.04294674	-14.7933931	220	5	1.1	0.9;
	305	1	103	12	0	0.63	0	1.06688579	-32.7013029	220	5	1.1	0.9;
	306	1	-0	0	0	4.76	0	1.02859945	-18.8399305	220	5	1.1	0.9;
	314	1	163.1	46.3	0	10.6	0	1.00398448	-16.0789612	220	5	1.1	0.9;
	333	1	524.5	43	0	6.85	0	1.01261378	-42.329255	220	5	1.1	0.9;
	338	2	0	0	0	0	0	1.048249	-6.10485421	220	5	1.1	0.9;
	346	1	197.5	48.3	0	0.71	0	1.04041093	-21.3300985	220	5	1.1	0.9;
	350	1	110.4	26.2	0	5.62	0	1.04284925	-24.3209146	220	5	1.1	0.9;
	352	2	0	0	0	0	0	1.055378	0.282315313	380	5	1.1	0.9;
	367	1	65.17	-51.5	0	4.85	0	1.07028691	-23.6292393	220	5	1.1	0.9;
	401	1	56.5	36.29	0	3.08	0	1.02654723	-14.4048824	220	5	1.1	0.9;
	408	1	129.1	7.4	0	0.04	0	1.03979036	-11.9135808	220	5	1.1	0.9;
	410	1	170.89	50.38	0	6.44	0	1.02554331	-26.8200111	220	5	1.1	0.9;
	413	2	0	0	0	0	0	1.05013	-6.59423024	220	5	1.1	0.9;
	416	1	70.68	13.5	0	6.96	0	1.04577967	-6.75082919	220	5	1.1	0.9;
	426	1	123.1	6.5	0	3.25	0	1.04018115	-18.4886929	220	5	1.1	0.9;
	432	1	-0	-0	0	68.517663	0	1.04692532	2.45614975	380	5	1.1	0.9;
	444	1	0	-0	0	2.45	0	1.03610524	-12.4441393	220	5	1.1	0.9;
	449	1	0	0	0	29.42	0	1.02167847	-8.47771563	380	5	1.1	0.9;
	453	2	0	0	0	0	0	1.018914	-7.78883605	380	5	1.1	0.9;
	455	1	274.32	5.66	0	13.24	0	1.04186008	-31.0297104	220	5	1.1	0.9;
	490	1	20.52	4	0	2.77	0	1.03645157	-23.038382	220	5	1.1	0.9;
	500	1	144.4	35.5	0	7.66	0	1.04041517	-15.0667785	220	5	1.1	0.9;
	502	1	-0	0	0	1.96	0	1.04356435	-6.62873759	220	5	1.1	0.9;
	506	1	-0	0	0	0.4	0	1.06322293	-9.23793081	380	5	1.1	0.9;
	513	1	57.46	17.1	0	1.61	0	1.03841141	-7.39341304	220	5	1.1	0.9;
	516	2	0	0	0	0	0	1.075592	-33.4919102	220	5	1.1	0.9;
	520	1	118.5	20.4	0	2.57	0	1.04744396	-27.3964056	220	5	1.1	0.9;
	549	1	0	-0	0	5.15	0	1.07528095	-10.5752765	220	5	1.1	0.9;
	554	1	0	-0	0	1.97	0	1.02260056	-20.8441719	220	5	1.1	0.9;
	556	1	16.52	9	0	1.17	0	1.03687169	-22.7863101	220	5	1.1	0.9;
	561	1	0	-0	0	0.32	0	1.05544887	-11.128433	220	5	1.1	0.9;
	564	2	0	0	0	0	0	1.069817	-47.2983193	220	5	1.1	0.9;
	575	1	0	-0	0	0.67	0	1.04421685	-11.4348905	220	5	1.1	0.9;
	583	2	0	0	0	0	0	1.045397	-15.5948914	220	5	1.1	0.9;
	594	1	67.57	17	0	5.75	0	1.03663634	-8.85695616	220	5	1.1	0.9;
	601	1	140.6	42.6	0	5.71	0	1.03932284	-14.4698933	220	5	1.1	0.9;
	604	1	33.24	4.4	0	24.54	0	0.996722123	-12.9581802	380	5	1.1	0.9;
	608	1	150.9	10.4	0	4.77	0	1.07175618	-32.8646466	220	5	1.1	0.9;
	609	1	-0	-0	0	5.67	0	1.0253277	-14.8031098	220	5	1.1	0.9;
	615	2	0	0	0	0	0	1.063876	-10.7750369	220	5	1.1	0.9;
	616	2	0	0	0	0	0	1.048713	-13.058714	220	5	1.1	0.9;
	619	1	72.88	14.4	0	2.96	0	1.04542462	-25.3149242	220	5	1.1	0.9;
	639	2	0	0	0	0	0	1.051376	-30.3106853	220	5	1.1	0.9;
	641	1	45.32	18.5	0	0.74	0	1.03515015	-13.8727321	220	5	1.1	0.9;
	658	1	258.4	66.7	0	5.87	0	1.03370429	-17.5701523	220	5	1.1	0.9;
	661	1	-0	-0	0	0.6	0	1.04000632	2.37293401	380	5	1.1	0.9;
	666	1	-5.61	-2.79	0	150.93	0	1.03018989	-5.43014693	380	5	1.1	0.9;
	678	1	232.1	89.8	0	0.09	0	0.986375398	-18.3346383	220	5	1.1	0.9;
	682	2	0	0	0	0	0	1.0691	-9.78607825	220	5	1.1	0.9;
	687	1	-0	0	0	5.6	0	1.0576589	-3.62593139	220	5	1.1	0.9;
	707	1	83.99	21.2	0	5.36	0	1.05427731	-25.7688334	220	5	1.1	0.9;
	718	1	135.11	41	0	5.31	0	1.03004495	-25.1660477	220	5	1.1	0.9;
	720	1	-0	-0	0	23.554121	0	0.981555478	-27.127862	380	5	1.1	0.9;
	726	1	400.3	189.9	0	0.53	0	1.04830987	-4.49037156	220	5	1.1	0.9;
	742	1	0	-0	0	2.83	0	1.05782861	-3.6274396	220	5	1.1	0.9;
	747	1	69.58	16	0	3.03	0	1.07251243	-26.4173486	220	5	1.1	0.9;
	749	2	0	0	0	0	0	1.057884	-29.2020655	220	5	1.1	0.9;
	750	1	-0	-0	0	18.63	0	1.04112079	-24.4784928	220	5	1.1	0.9;
	757	1	0	0	0	0	0	1.01563609	-13.8076249	380	5	1.1	0.9;
	766	1	-0	0	0	7.85	0	1.04915406	-20.8043771	220	5	1.1	0.9;
	769	1	152.57	40	0	6.12	0	1.02338384	-10.6761058	220	5	1.1	0.9;
	772	1	343.9	141.9	0	5.55	0	1.03433856	-14.191242	220	5	1.1	0.9;
	776	2	0	0	0	0	0	1.026368	-13.3294766	220	5	1.1	0.9;
	778	2	0	0	0	0	0	1.049411	-6.62326847	220	5	1.1	0.9;
	789	1	-0	-0	0	6.63	0	1.05168099	-5.97533532	220	5	1.1	0.9;
	795	2	0	0	0	0	0	1.035522	-15.4149202	220	5	1.1	0.9;
	800	1	50.56	18	0	0.11	0	1.03477863	-12.4259318	220	5	1.1	0.9;
	803	2	0	0	0	0	0	1.041369	-25.0599547	220	5	1.1	0.9;
	804	1	-0	-0	0	7.26	0	1.05581397	-7.55031957	220	5	1.1	0.9;
	805	1	124.5	29.6	0	15.4	0	1.05617781	-11.1519382	220	5	1.1	0.9;
	809	1	0	-0	0	58.088687	0	1.02741893	0.102468738	380	5	1.1	0.9;
	819	1	0	-0	0	0.22	0	1.05216855	-0.685269115	220	5	1.1	0.9;
	823	2	0	0	0	0	0	1.044097	-2.1993653	380	5	1.1	0.9;
	839	1	-0	-0	0	8.17514	0	1.02392668	-1.20839135	380	5	1.1	0.9;
	851	2	0	0	0	0	0	1.00025	-17.1115641	220	5	1.1	0.9;
	858	2	0	0	0	0	0	1.031745	1.28279214	380	5	1.1	0.9;
	870	1	110	3.4	0	11.95	0	1.04074123	-24.6357525	220	5	1.1	0.9;
	871	1	108.89	-21.76	0	3.72	0	1.05673584	-12.0136671	220	5	1.1	0.9;
	883	1	192.5	78.3	0	6.65	0	1.01717336	-10.106658	220	5	1.1	0.9;
	891	2	0	0	0	0	0	1.064525	-19.0544687	380	5	1.1	0.9;
	892	1	-0	-0	0	9.1	0	1.06916596	-35.0359832	220	5	1.1	0.9;
	900	1	0	0	0	0.15	0	1.05001367	-15.4988409	220	5	1.1	0.9;
	903	1	82.69	20.1	0	1.36	0	1.07247442	-26.4425625	220	5	1.1	0.9;
	905	1	631.71	-54.16	0	7.534129	0	1.03563965	-15.1018566	380	5	1.1	0.9;
	907	1	-0	-0	0	0.05	0	1.0385547	-9.74270647	220	5	1.1	0.9;
	908	1	125.9	-0.5	0	0.21	0	1.06521441	-8.0141228	220	5	1.1	0.9;
	920	1	34.44	8.5	0	1.11	0	1.04525526	-20.8013218	220	5	1.1	0.9;
	923	1	62.07	14.7	0	4.84	0	1.03557483	-23.1140209	220	5	1.1	0.9;
	933	1	-0	0	0	22.75	0	1.01966096	-21.559002	220	5	1.1	0.9;
	935	1	-0	0	0	9.46	0	1.04787722	-24.5310667	220	5	1.1	0.9;
	953	1	108.7	-12.15	0	37.11	0	1.06589509	-12.9760442	380	5	1.1	0.9;
	954	1	66.27	13.6	0	0.67	0	1.0440243	-21.5769019	220	5	1.1	0.9;
	960	1	-0	-0	0	108.728602	0	1.06322162	-9.23792622	380	5	1.1	0.9;
	964	1	88.5	16.5	0	146.44	0	1.01469869	-11.6995177	380	5	1.1	0.9;
	972	2	0	0	0	0	0	1.072621	5.33892259	380	5	1.3	0.7;
	980	1	14.71	4.6	0	7.88	0	1.04584785	-25.2008611	220	5	1.1	0.9;
	1001	1	0	0	0	0	0	1.07411267	-33.6602415	220	5	1.1	0.9;
	1002	2	0	0	0	0	0	1.041506	-20.1196263	220	5	1.1	0.9;
	1005	1	0	0	0	0.81	0	1.05395532	-12.5228757	220	5	1.1	0.9;
	1015	1	44.55	0	0	4.78	0	1.05627646	-5.41969776	220	5	1.1	0.9;
	1026	1	201.4	53	0	9.67	0	1.02696332	-29.6099326	220	5	1.1	0.9;
	1027	1	-5.91	-2.33	0	30.393595	0	0.989548456	-18.2007893	380	5	1.1	0.9;
	1033	1	26.33	5.3	0	4.31	0	1.04091371	-24.5556036	220	5	1.1	0.9;
	1035	1	382.5	57.9	0	8.16	0	1.06751268	-32.5890826	220	5	1.1	0.9;
	1039	1	34.64	-0	0	0.91	0	1.03443343	-19.5720631	220	5	1.1	0.9;
	1040	1	31.94	8.8	0	3.79	0	1.03891314	-9.00273796	220	5	1.1	0.9;
	1043	2	0	0	0	0	0	1.028946	-3.66444938	380	5	1.1	0.9;
	1051	1	-0	0	0	3.79	0	1.04162734	-12.9718645	220	5	1.1	0.9;
	1077	1	-0	0	0	0.1	0	1.03520624	-12.3919977	220	5	1.1	0.9;
	1078	1	-0	-0	0	4.74	0	1.06150956	-3.49309034	220	5	1.1	0.9;
	1081	1	277.86	58.95	0	182.880644	0	1.03833928	-10.5765	380	5	1.1	0.9;
	1083	2	0	0	0	0	0	1.049472	-8.63687836	220	5	1.1	0.9;
	1090	1	56.06	18.7	0	4.24	0	1.00862491	-21.7170376	220	5	1.1	0.9;
	1093	2	0	0	0	0	0	1.027056	-8.55067974	380	5	1.1	0.9;
	1096	1	0	-0	0	0.16	0	1.05018886	-1.08134525	220	5	1.1	0.9;
	1100	2	0	0	0	0	0	1.042801	-4.31693046	220	5	1.1	0.9;
	1101	1	-0	-0	0	2.05	0	1.03350878	-14.2328385	220	5	1.1	0.9;
	1102	2	0	0	0	0	0	1.049879	-6.62971799	220	5	1.1	0.9;
	1105	1	29.83	7.3	0	6.49	0	1.07335	-26.3625745	220	5	1.1	0.9;
	1111	1	0	0	0	1.1	0	1.03677661	-8.85886672	220	5	1.1	0.9;
	1129	1	190.47	55.03	0	6.7	0	1.00183866	-22.5598975	220	5	1.1	0.9;
	1136	1	16.22	2	0	0.71	0	1.03333975	-18.5837499	220	5	1.1	0.9;
	1137	1	-0	-0	0	0.05	0	1.04735965	-24.488863	220	5	1.1	0.9;
	1146	1	32.84	-0	0	1.41	0	1.03252561	-5.65080324	220	5	1.1	0.9;
	1151	1	-0	-0	0	18.82	0	1.04310175	-20.6393427	220	5	1.1	0.9;
	1153	1	12.41	3.9	0	2.23	0	1.03444939	-5.72745442	220	5	1.1	0.9;
	1156	1	65.67	24	0	9.95	0	1.03786998	-22.5243922	220	5	1.1	0.9;
	1159	1	112.4	13	0	3.99	0	1.05211177	-36.2368543	220	5	1.1	0.9;
	1172	1	-0	-0	0	2.3	0	1.07307377	-25.5919951	220	5	1.1	0.9;
	1179	1	86.6	23.4	0	0.39	0	1.04086571	-2.84072653	220	5	1.1	0.9;
	1183	1	199.4	-19.9	0	6.68	0	1.06593747	-32.9903465	220	5	1.1	0.9;
	1187	1	67.57	21.2	0	5.71	0	1.03973985	-4.9779115	220	5	1.1	0.9;
	1188	1	30.93	6.6	0	9.09	0	1.05433819	-14.3518429	220	5	1.1	0.9;
	1194	1	129.6	13.3	0	13.98	0	1.03877489	-15.1929041	380	5	1.1	0.9;
	1198	1	0	0	0	30.637696	0	0.985086091	-14.5580504	380	5	1.1	0.9;
	1201	1	114.1	23.5	0	1.08	0	1.03399704	-19.8323678	220	5	1.1	0.9;
	1216	1	0	0	0	4.93	0	1.03965651	-10.8355262	220	5	1.1	0.9;
	1233	1	0	-0	0	1.72	0	1.03779792	-22.5492501	220	5	1.1	0.9;
	1234	1	71.78	17.9	0	1.96	0	1.01514894	-16.5707358	220	5	1.1	0.9;
	1237	2	0	0	0	0	0	1.108028	-6.24457763	380	5	1.3	0.7;
	1248	1	0	0	0	1.17	0	1.04230228	-10.6851576	220	5	1.1	0.9;
	1249	1	348.93	26.47	0	9.36	0	1.01679327	-11.2506022	380	5	1.1	0.9;
	1251	2	0	0	0	0	0	1.027102	-8.56022356	380	5	1.1	0.9;
	1262	1	-0	0	0	10.73	0	1.0383992	-22.0565672	220	5	1.1	0.9;
	1265	1	173	-21.3	0	5.93	0	1.06642805	-50.1697259	220	5	1.1	0.9;
	1275	1	52.46	2.9	0	0.35	0	1.02958299	-18.9002755	220	5	1.1	0.9;
	1295	2	0	0	0	0	0	1.03682	-8.58581051	220	5	1.1	0.9;
	1301	1	479	99.2	0	10.68	0	1.05113931	-28.7497651	220	5	1.1	0.9;
	1305	1	-0	-0	0	4.34	0	1.0364309	-22.5872634	220	5	1.1	0.9;
	1311	1	37.94	15.2	0	35.31	0	1.03370701	-21.6884781	380	5	1.1	0.9;
	1326	1	0	0	0	0.98	0	1.06931561	-35.0369777	220	5	1.1	0.9;
	1334	1	0	0	0	0.59	0	1.01736344	-16.3558834	220	5	1.1	0.9;
	1341	2	0	0	0	0	0	1.032899	-14.2286886	220	5	1.1	0.9;
	1343	1	-0	-0	0	58.3	0	0.991652501	-14.1301419	380	5	1.1	0.9;
	1354	2	0	0	0	0	0	1.041045	-7.32734171	220	5	1.1	0.9;
	1355	1	-3.29	-1.32	0	190.704588	0	1.03245808	-8.59015363	380	5	1.1	0.9;
	1364	1	40.85	14.5	0	0.59	0	1.03496186	-12.1112337	220	5	1.1	0.9;
	1380	1	145.2	21.4	0	1.09	0	1.01730231	-22.8708761	220	5	1.1	0.9;
	1394	1	30.93	7.6	0	4.69	0	1.07325065	-26.3508659	220	5	1.1	0.9;
	1397	1	0	-0	0	2.14	0	1.03792354	-12.9637333	220	5	1.1	0.9;
	1398	1	196.7	44.2	0	0.1	0	1.01106625	-19.0816075	220	5	1.1	0.9;
	1401	1	11.91	2.9	0	5.27	0	1.03295898	-14.7833573	220	5	1.1	0.9;
...
];

%% generator data
%	bus	Pg	Qg	Qmax	Qmin	Vg	mBase	status	Pmax	Pmin	Pc1	Pc2	Qc1min	Qc1max	Qc2min	Qc2max	ramp_agc	ramp_10	ramp_30	ramp_q	apf
mpc.gen = [
	124	861.3	63.3596203	440.32	-172.59	1.081537	100	1	1000	333.33	0	0	0	0	0	0	0	0	0	0	0;
	150	67.29	-2.18770792	77.09	-22.54	1.062805	100	1	160	0	0	0	0	0	0	0	0	0	0	0	0;
	221	-155.39	33.6846032	183.92	-65.3	0.984682	100	1	100	-207.18	0	0	0	0	0	0	0	0	0	0	0;
	338	83.7	2.69205967	55.54	-19.16	1.048249	100	1	120	0	0	0	0	0	0	0	0	0	0	0	0;
	352	1250.4	294.896339	926.35	-297.68	1.055378	100	1	2000	666.67	0	0	0	0	0	0	0	0	0	0	0;
	413	231	26.2905139	124.12	-49.84	1.05013	100	1	280	0	0	0	0	0	0	0	0	0	0	0	0;
	453	260.1	64.7110605	257.23	-74.4	1.018914	100	1	540	0	0	0	0	0	0	0	0	0	0	0	0;
	516	539.4	195.469528	261.79	-106.67	1.075592	100	1	600	200	0	0	0	0	0	0	0	0	0	0	0;
	564	-51.67	5.91365268	18.47	-19.35	1.069817	100	1	100	-68.89	0	0	0	0	0	0	0	0	0	0	0;
	583	-270	6.10991654	17.88	-7.03	1.045397	100	1	100	-360	0	0	0	0	0	0	0	0	0	0	0;
	615	38.2	0.734228987	17.09	-7.79	1.063876	100	1	40	0	0	0	0	0	0	0	0	0	0	0	0;
	616	379.2	69.7020667	217.9	-81.16	1.048713	100	1	480	160	0	0	0	0	0	0	0	0	0	0	0;
	639	-46.2	133.007672	135.52	-38.9	1.051376	100	1	100	-61.6	0	0	0	0	0	0	0	0	0	0	0;
	682	37.4	8.98103082	38.77	-11.06	1.0691	100	1	80	0	0	0	0	0	0	0	0	0	0	0	0;
	749	198.88	0.699973919	105.69	-43.84	1.057884	100	1	240	0	0	0	0	0	0	0	0	0	0	0	0;
	757	116.7	51.3	51.3	-23.41	1.017567	100	1	120	0	0	0	0	0	0	0	0	0	0	0	0;
	776	-111.4	8.25539618	18.16	-6.73	1.026368	100	1	100	-148.53	0	0	0	0	0	0	0	0	0	0	0;
	778	16.5	4.7896668	12.37	-9.36	1.049411	100	1	33.58	0	0	0	0	0	0	0	0	0	0	0	0;
	795	58.4	10.3565068	36.75	-13.04	1.035522	100	1	80	0	0	0	0	0	0	0	0	0	0	0	0;
	803	-89.2	11.4981213	74.03	-25.54	1.041369	100	1	100	-118.93	0	0	0	0	0	0	0	0	0	0	0;
	823	1274.2	316.963087	926.68	-298.31	1.044097	100	1	2000	666.67	0	0	0	0	0	0	0	0	0	0	0;
	851	59.56	52.3533848	96.64	-27.81	1.00025	100	1	200	0	0	0	0	0	0	0	0	0	0	0	0;
	858	855.6	171.120884	440.67	-172.15	1.031745	100	1	1000	333.33	0	0	0	0	0	0	0	0	0	0	0;
	891	1702.8	694.929971	1097.41	-373.91	1.064525	100	1	2400	800	0	0	0	0	0	0	0	0	0	0	0;
	972	1221.2	404.436968	934.73	-291.52	1.072621	100	1	2000	666.67	0	0	0	0	0	0	0	0	0	0	0;
	1001	92.1	55.02	55.02	-19.81	1.074143	100	1	120	0	0	0	0	0	0	0	0	0	0	0	0;
	1002	171	17.5302786	89.55	-35.15	1.041506	100	1	200	0	0	0	0	0	0	0	0	0	0	0	0;
	1043	829.5	49.2039376	387.88	-163.4	1.028946	100	1	900	300	0	0	0	0	0	0	0	0	0	0	0;
	1083	91.8	11.4187262	54.91	-19.88	1.049472	100	1	120	0	0	0	0	0	0	0	0	0	0	0	0;
	1093	837	93.9238678	550.69	-185.15	1.027056	100	1	1200	400	0	0	0	0	0	0	0	0	0	0	0;
	1100	58.2	5.92889364	36.8	-13.01	1.042801	100	1	80	0	0	0	0	0	0	0	0	0	0	0	0;
	1102	-124.15	16.9216626	38.05	-11.59	1.049879	100	1	100	-165.54	0	0	0	0	0	0	0	0	0	0	0;
	1237	1504.8	374.723028	906.61	-319.44	1.108028	100	1	2000	666.67	0	0	0	0	0	0	0	0	0	0	0;
	1251	837	89.4788129	550.69	-185.15	1.027102	100	1	1200	400	0	0	0	0	0	0	0	0	0	0	0;
	1295	-124.1	5.58842958	36.92	-12.88	1.03682	100	1	100	-165.47	0	0	0	0	0	0	0	0	0	0	0;
	1341	67.2	33.6120187	57.03	-17.62	1.032899	100	1	120	0	0	0	0	0	0	0	0	0	0	0	0;
	1354	-246.5	15.6856392	38.08	-11.73	1.041045	100	1	100	-328.67	0	0	0	0	0	0	0	0	0	0	0;
	1422	-101	17.2692618	18.09	-6.79	1.04353	100	1	100	-134.67	0	0	0	0	0	0	0	0	0	0	0;
	1436	49.4	3.20197248	37.72	-12.09	1.047684	100	1	80	0	0	0	0	0	0	0	0	0	0	0	0;
	1478	62.6	10.4050577	36.4	-13.44	1.048068	100	1	80	0	0	0	0	0	0	0	0	0	0	0	0;
	1604	50.6	14.0312853	37.66	-12.17	1.043862	100	1	80	0	0	0	0	0	0	0	0	0	0	0	0;
	1642	50.4	37.74	37.74	-12.11	1.028554	100	1	80	0	0	0	0	0	0	0	0	0	0	0	0;
	1680	1250.4	300.718583	928.89	-296.1	1.04395	100	1	2000	666.67	0	0	0	0	0	0	0	0	0	0	0;
	1708	860.8	141.603376	439.37	-173.3	1.037938	100	1	1000	333.33	0	0	0	0	0	0	0	0	0	0	0;
	1721	28.1	1.86224756	18.52	-6.39	1.062238	100	1	40	0	0	0	0	0	0	0	0	0	0	0	0;
	1754	40	16.99	16.99	-7.92	1.04286	100	1	41.06	0	0	0	0	0	0	0	0	0	0	0	0;
	1794	1250.4	272.010615	926.35	-297.68	1.05295	100	1	2000	666.67	0	0	0	0	0	0	0	0	0	0	0;
	1808	-0.6	-4.60448547	111.23	-38.16	1.046224	100	1	100	-0.8	0	0	0	0	0	0	0	0	0	0	0;
	1851	15.6	-0.993884883	11.76	-8.89	1.04762	100	1	31.92	0	0	0	0	0	0	0	0	0	0	0	0;
	1852	-241.8	19.0016226	58.16	-16.52	1.054325	100	1	100	-322.4	0	0	0	0	0	0	0	0	0	0	0;
	1888	573.68	38.3892951	396.02	-155.83	1.039377	100	1	912.78	312.78	0	0	0	0	0	0	0	0	0	0	0;
	1914	115.5	-45.0146169	160.36	-150.95	1.035636	100	1	472.16	39.35	0	0	0	0	0	0	0	0	0	0	0;
	1959	31	1.12819635	18.14	-6.75	1.064692	100	1	40	0	0	0	0	0	0	0	0	0	0	0	0;
	2035	855.6	158.670182	441.85	-171.27	1.03088	100	1	1000	333.33	0	0	0	0	0	0	0	0	0	0	0;
	2050	836.2	1.13124683	962.2	-263.65	1.009914	100	1	2000	666.67	0	0	0	0	0	0	0	0	0	0	0;
	2085	176	35.1756479	88.39	-36.19	1.040351	100	1	200	0	0	0	0	0	0	0	0	0	0	0	0;
	2177	-121.3	31.3522216	58.35	-16.26	1.07333	100	1	100	-161.73	0	0	0	0	0	0	0	0	0	0	0;
	2197	-53.29	19.51	19.51	-14.74	1.035528	100	1	100	-71.05	0	0	0	0	0	0	0	0	0	0	0;
	2276	38.9	-20.9906138	41.67	-36.5	1.05324	100	1	119.3	0	0	0	0	0	0	0	0	0	0	0	0;
	2291	110.5	20.1414124	95.69	-28.93	1.072528	100	1	200	0	0	0	0	0	0	0	0	0	0	0	0;
	2359	78.2	28.9119691	34.35	-15.5	1.024884	100	1	80	0	0	0	0	0	0	0	0	0	0	0	0;
	2421	-320.4	22.5238943	37.39	-12.45	1.047766	100	1	100	-427.2	0	0	0	0	0	0	0	0	0	0	0;
	2425	-100.5	8.26499029	54.3	-20.49	1.041186	100	1	100	-134	0	0	0	0	0	0	0	0	0	0	0;
	2426	-43.2	-17.0545067	105.34	-99.02	1.037687	100	1	100	-57.6	0	0	0	0	0	0	0	0	0	0	0;
	2446	1367	305.435294	921.62	-304.73	1.06157	100	1	2000	666.67	0	0	0	0	0	0	0	0	0	0	0;
	2468	46.8	5.35891752	38.02	-11.81	1.048132	100	1	80	0	0	0	0	0	0	0	0	0	0	0	0;
	2481	31.8	14.6132729	39.12	-10.71	1.042777	100	1	80	0	0	0	0	0	0	0	0	0	0	0	0;
	2489	286.5	-12.7065472	162.4	-61.79	1.049366	100	1	360	0	0	0	0	0	0	0	0	0	0	0	0;
	2550	54.3	4.34898631	58.23	-16.49	1.049384	100	1	120	0	0	0	0	0	0	0	0	0	0	0	0;
	2600	76.48	17.1620868	76.08	-23.59	1.038821	100	1	160	0	0	0	0	0	0	0	0	0	0	0	0;
	2627	1367	315.670258	921.52	-304.79	1.061488	100	1	2000	666.67	0	0	0	0	0	0	0	0	0	0	0;
	2653	41.92	41.4235266	51.94	-22.8	1.036517	100	1	120	0	0	0	0	0	0	0	0	0	0	0	0;
	2719	77.6	-7.20479882	70.15	-58.1	1.035384	100	1	196.72	0	0	0	0	0	0	0	0	0	0	0	0;
	2786	1221.2	388.027923	934.81	-291.47	1.073795	100	1	2000	666.67	0	0	0	0	0	0	0	0	0	0	0;
	2797	-95.1	-3.15375525	88.33	-36.33	1.042226	100	1	100	-126.8	0	0	0	0	0	0	0	0	0	0	0;
	2799	66.8	-1.218749	77.91	-21.66	1.05396	100	1	160	0	0	0	0	0	0	0	0	0	0	0	0;
	2816	1250.4	289.700617	926.26	-297.74	1.053944	100	1	2000	666.67	0	0	0	0	0	0	0	0	0	0	0;
	2841	80.7	-2.76078809	55.98	-18.76	1.08248	100	1	120	0	0	0	0	0	0	0	0	0	0	0	0;
	2842	31.6	5.83378009	18.19	-6.74	1.043712	100	1	40	0	0	0	0	0	0	0	0	0	0	0	0;
	2872	4.5	1.32073047	3.31	-2.54	1.063841	100	1	9.05	0	0	0	0	0	0	0	0	0	0	0	0;
	2878	8.95	-6.04092231	72.95	-68.71	1.057626	100	1	214.86	0	0	0	0	0	0	0	0	0	0	0	0;
	2886	60.9	13.0767788	57.69	-17.02	1.055151	100	1	120	0	0	0	0	0	0	0	0	0	0	0	0;
	2902	20.9	1.16174948	19.19	-5.72	1.059072	100	1	40	0	0	0	0	0	0	0	0	0	0	0	0;
	2930	53.2	2.78184374	37.24	-12.54	1.047695	100	1	80	0	0	0	0	0	0	0	0	0	0	0	0;
	2934	3.4	0.108232939	2.51	-1.91	1.051149	100	1	6.83	0	0	0	0	0	0	0	0	0	0	0	0;
	2985	46.6	-57.4151831	184.46	-132.67	1.053607	100	1	493.35	0	0	0	0	0	0	0	0	0	0	0	0;
	3018	162.5	-4.71297121	89.61	-34.82	1.041705	100	1	200	0	0	0	0	0	0	0	0	0	0	0	0;
	3028	855.7	156.064683	441.85	-171.27	1.030654	100	1	1000	333.33	0	0	0	0	0	0	0	0	0	0	0;
	3114	38.6	4.85743736	17.33	-7.61	1.071964	100	1	40	0	0	0	0	0	0	0	0	0	0	0	0;
	3133	85.54	11.6072087	113.97	-35.56	1.065372	100	1	240	0	0	0	0	0	0	0	0	0	0	0	0;
	3134	-136.3	-6.00362777	70.25	-29.33	1.023117	100	1	100	-181.73	0	0	0	0	0	0	0	0	0	0	0;
	3183	98.7	-2.68744793	53.7	-20.98	1.055515	100	1	120	0	0	0	0	0	0	0	0	0	0	0	0;
	3205	416.7	243.61	243.61	-88.46	1.041982	100	1	540	0	0	0	0	0	0	0	0	0	0	0	0;
	3218	-107.4	12.0726125	36.79	-13	1.028507	100	1	100	-143.2	0	0	0	0	0	0	0	0	0	0	0;
	3240	-42.3	-13.5990745	62.23	-51.37	1.050305	100	1	100	-56.4	0	0	0	0	0	0	0	0	0	0	0;
	3306	861.3	150.739113	439.2	-173.43	1.071978	100	1	1000	333.33	0	0	0	0	0	0	0	0	0	0	0;
	3324	-26.48	17.5344184	38.13	-11.64	1.014126	100	1	100	-35.3	0	0	0	0	0	0	0	0	0	0	0;
	3346	56.8	37.1	37.1	-12.76	1.01594	100	1	80	0	0	0	0	0	0	0	0	0	0	0	0;
	3353	19.07	5.99757431	38.2	-11.61	1.045739	100	1	80	0	0	0	0	0	0	0	0	0	0	0	0;
	3364	44.5	-21.9976988	47.19	-41.44	1.0538	100	1	135.27	0	0	0	0	0	0	0	0	0	0	0	0;
	3390	2.4	13.5750139	54.59	-20.19	1.039984	100	1	120	0	0	0	0	0	0	0	0	0	0	0	0;
	3422	53.7	-1.77800071	58.19	-16.5	1.063657	100	1	120	0	0	0	0	0	0	0	0	0	0	0	0;
	3436	521	245.121558	550.97	-184.89	1.060777	100	1	1200	400	0	0	0	0	0	0	0	0	0	0	0;
	3492	-370.8	13.9682465	53.75	-21.08	1.04852	100	1	100	-494.4	0	0	0	0	0	0	0	0	0	0	0;
	3513	829.8	153.119106	387.88	-163.4	1.028771	100	1	900	300	0	0	0	0	0	0	0	0	0	0	0;
	3565	15.88	6.4246181	38.83	-10.97	1.081614	100	1	80	0	0	0	0	0	0	0	0	0	0	0	0;
	3580	539	193.106638	261.7	-107.36	1.07602	100	1	600	0	0	0	0	0	0	0	0	0	0	0	0;
	3611	-125.4	6.10931308	54.59	-20.12	1.03905	100	1	100	-167.2	0	0	0	0	0	0	0	0	0	0	0;
	3656	-26.2	21.498902	116.07	-33.32	1.070983	100	1	100	-34.93	0	0	0	0	0	0	0	0	0	0	0;
	3661	861.2	127.671752	441.04	-172.05	1.059676	100	1	1000	333.33	0	0	0	0	0	0	0	0	0	0	0;
	3698	-12.58	30.8091392	36.34	-13.47	1.041813	100	1	100	-16.78	0	0	0	0	0	0	0	0	0	0	0;
	3741	854.7	198.620037	548.57	-187.16	1.031629	100	1	1200	400	0	0	0	0	0	0	0	0	0	0	0;
	3809	257	128.783962	313.01	-116.73	1.084785	100	1	700	233.33	0	0	0	0	0	0	0	0	0	0	0;
	3825	837.3	67.1148363	388.17	-163.4	1.026994	100	1	900	300	0	0	0	0	0	0	0	0	0	0	0;
	3869	855.6	169.034669	440.69	-172.14	1.031907	100	1	1000	333.33	0	0	0	0	0	0	0	0	0	0	0;
	3876	-25.1	0.803751042	34.27	-15.52	1.044501	100	1	100	-33.47	0	0	0	0	0	0	0	0	0	0	0;
	3916	-21.27	19.9637318	38.02	-11.77	1.043758	100	1	100	-28.37	0	0	0	0	0	0	0	0	0	0	0;
	3951	-27.1	-72.9846179	126.16	-127.56	1.027439	100	1	100	-36.13	0	0	0	0	0	0	0	0	0	0	0;
	3971	-134.5	10.0164622	55.67	-19.09	1.063145	100	1	100	-179.33	0	0	0	0	0	0	0	0	0	0	0;
	4024	89.5	43.6595706	97.07	-27.44	1.040328	100	1	200	0	0	0	0	0	0	0	0	0	0	0	0;
	4056	-76.9	3.77338606	38.05	-11.77	1.038526	100	1	100	-102.53	0	0	0	0	0	0	0	0	0	0	0;
	4084	366.1	54.2346387	264.94	-103.74	1.063234	100	1	600	0	0	0	0	0	0	0	0	0	0	0	0;
	4118	41	9.19355408	38.37	-11.4	1.027195	100	1	80	0	0	0	0	0	0	0	0	0	0	0	0;
	4125	59.6	36.89	36.89	-13	1.003502	100	1	80	0	0	0	0	0	0	0	0	0	0	0	0;
	4128	67.5	26.4874385	57.03	-17.63	1.019761	100	1	120	0	0	0	0	0	0	0	0	0	0	0	0;
	4231	2620.11261	877.110696	99999	-99999	1.049182	100	1	4188.95	1333.33	0	0	0	0	0	0	0	0	0	0	0;
	4331	60.2	6.92503953	36.73	-13.12	1.028646	100	1	80	0	0	0	0	0	0	0	0	0	0	0	0;
	4395	-129.1	11.0661625	38.48	-11.33	1.039834	100	1	100	-172.13	0	0	0	0	0	0	0	0	0	0	0;
	4419	861.3	131.00893	441.04	-172.05	1.059565	100	1	1000	333.33	0	0	0	0	0	0	0	0	0	0	0;
	4480	861.3	150.997256	439.2	-173.43	1.071852	100	1	1000	333.33	0	0	0	0	0	0	0	0	0	0	0;
	4482	35.2	14.092682	38.85	-10.95	1.049914	100	1	80	0	0	0	0	0	0	0	0	0	0	0	0;
	4506	-171.8	23.350525	37.86	-11.95	1.036047	100	1	100	-229.07	0	0	0	0	0	0	0	0	0	0	0;
	4566	-30.39	10.7360088	37.94	-11.87	1.073282	100	1	100	-40.51	0	0	0	0	0	0	0	0	0	0	0;
	4624	68	8.89539103	35.62	-14.19	1.042135	100	1	80	0	0	0	0	0	0	0	0	0	0	0	0;
	4661	-78.9	8.29487911	19.14	-5.77	1.049813	100	1	100	-105.2	0	0	0	0	0	0	0	0	0	0	0;
	4701	93.2	4.81653322	98.4	-86.29	1.043063	100	1	281.85	0	0	0	0	0	0	0	0	0	0	0	0;
	4783	861.3	148.474733	439.2	-173.43	1.071981	100	1	1000	333.33	0	0	0	0	0	0	0	0	0	0	0;
	4816	-26.08	38.37	38.37	-11.44	1.067305	100	1	100	-34.77	0	0	0	0	0	0	0	0	0	0	0;
	4819	855.6	170.359322	440.69	-172.14	1.031907	100	1	1000	333.33	0	0	0	0	0	0	0	0	0	0	0;
	4823	10.3	1.92829311	4.44	-2.07	1.067114	100	1	10.46	0	0	0	0	0	0	0	0	0	0	0	0;
	4850	88.8	15.0786816	76.52	-23.19	1.054975	100	1	160	0	0	0	0	0	0	0	0	0	0	0	0;
	4880	-40.3	6.46139391	75.62	-23.96	1.034991	100	1	100	-53.73	0	0	0	0	0	0	0	0	0	0	0;
	4918	41.69	37.27	37.27	-12.57	1.057325	100	1	80	0	0	0	0	0	0	0	0	0	0	0	0;
	4952	-12.57	7.09376798	37.23	-12.61	1.045386	100	1	100	-16.77	0	0	0	0	0	0	0	0	0	0	0;
	5004	54.3	13.9993474	74.73	-70.41	1.0663	100	1	220.12	0	0	0	0	0	0	0	0	0	0	0	0;
	5019	49.4	3.18453005	37.72	-12.09	1.047693	100	1	80	0	0	0	0	0	0	0	0	0	0	0	0;
	5051	83.48	6.57758144	74.55	-24.97	1.037373	100	1	160	0	0	0	0	0	0	0	0	0	0	0	0;
	5067	542	151.899904	258.91	-109.58	1.021924	100	1	600	0	0	0	0	0	0	0	0	0	0	0	0;
	5110	-52.51	11.8543196	38.28	-11.5	1.032061	100	1	100	-70.01	0	0	0	0	0	0	0	0	0	0	0;
	5120	75.6	-3.90906638	56.35	-18.42	1.055539	100	1	120	0	0	0	0	0	0	0	0	0	0	0	0;
	5144	1713.6	281.515016	882.86	-343.24	1.035201	100	1	2000	666.67	0	0	0	0	0	0	0	0	0	0	0;
	5237	106.8	19.3401182	75.02	-24.74	1.052719	100	1	160	0	0	0	0	0	0	0	0	0	0	0	0;
	5278	119.4	11.3131129	51.3	-23.49	1.042037	100	1	120	0	0	0	0	0	0	0	0	0	0	0	0;
	5340	-159	23.315917	36.37	-13.43	1.054941	100	1	100	-212	0	0	0	0	0	0	0	0	0	0	0;
	5365	19.59	18.14	18.14	-6.75	1.061754	100	1	40	0	0	0	0	0	0	0	0	0	0	0	0;
	5379	1250.6	367.962711	926.47	-297.63	1.107976	100	1	2000	666.67	0	0	0	0	0	0	0	0	0	0	0;
	5395	-395.8	53.6717029	58.06	-16.66	1.048137	100	1	100	-527.73	0	0	0	0	0	0	0	0	0	0	0;
	5461	43.4	38.26	38.26	-11.55	1.06213	100	1	80	0	0	0	0	0	0	0	0	0	0	0	0;
	5481	1368.6	184.432722	920.31	-305.64	1.063711	100	1	2000	666.67	0	0	0	0	0	0	0	0	0	0	0;
	5482	56.8	-1.99272792	101.32	-48.12	1.044486	100	1	249.06	0	0	0	0	0	0	0	0	0	0	0	0;
	5486	861.3	128.993583	441.04	-172.05	1.059636	100	1	1000	333.33	0	0	0	0	0	0	0	0	0	0	0;
	5488	-96.4	34.9500272	37.49	-12.33	1.041881	100	1	100	-128.53	0	0	0	0	0	0	0	0	0	0	0;
	5490	3424.8	419.288138	1765.36	-686.67	1.068845	100	1	4000	1333.33	0	0	0	0	0	0	0	0	0	0	0;
	5533	173	16.2070814	88.87	-35.71	1.038212	100	1	200	0	0	0	0	0	0	0	0	0	0	0	0;
	5546	21.5	2.58802377	19.16	-5.75	1.05378	100	1	40	0	0	0	0	0	0	0	0	0	0	0	0;
	5564	57.6	23.5592238	36.8	-12.99	1.04123	100	1	80	0	0	0	0	0	0	0	0	0	0	0	0;
	5658	229.8	103.18	103.18	-46.25	1.017689	100	1	240	0	0	0	0	0	0	0	0	0	0	0	0;
	5664	128	15.4828541	72.71	-27.05	1.070507	100	1	160	0	0	0	0	0	0	0	0	0	0	0	0;
	5709	837	87.6085824	550.69	-185.15	1.027078	100	1	1200	400	0	0	0	0	0	0	0	0	0	0	0;
	5781	1102.83	470.785597	779.29	-324.79	1.0396	100	1	1800	600	0	0	0	0	0	0	0	0	0	0	0;
	5814	181.2	51.9479542	196.98	-77.17	1.044051	100	1	440	146.67	0	0	0	0	0	0	0	0	0	0	0;
	5856	305.7	50.5153054	214.13	-85	1.038417	100	1	480	160	0	0	0	0	0	0	0	0	0	0	0;
	5881	60	8.32796053	36.72	-13.13	1.065605	100	1	80	0	0	0	0	0	0	0	0	0	0	0	0;
	5940	-74.9	9.67822434	17.21	-7.73	1.030075	100	1	100	-99.87	0	0	0	0	0	0	0	0	0	0	0;
	5971	1221.2	382.709548	934.54	-291.64	1.070056	100	1	2000	666.67	0	0	0	0	0	0	0	0	0	0	0;
	5983	-102.5	37.27	37.27	-12.59	1.066029	100	1	100	-136.67	0	0	0	0	0	0	0	0	0	0	0;
	5994	-87.3	-8.67694809	60.51	-61.08	1.029184	100	1	100	-116.4	0	0	0	0	0	0	0	0	0	0	0;
	6036	820.2	373.270952	390.4	-161.16	1.043738	100	1	900	300	0	0	0	0	0	0	0	0	0	0	0;
	6153	94.3	-30.5718036	249.65	-261.82	0.988112	100	1	769.94	32.08	0	0	0	0	0	0	0	0	0	0	0;
	6168	26.3	1.68119293	19.86	-14.93	1.040343	100	1	53.76	0	0	0	0	0	0	0	0	0	0	0	0;
	6291	55.5	58.12	58.12	-16.6	1.040598	100	1	120	0	0	0	0	0	0	0	0	0	0	0	0;
	6331	48.8	6.0677881	37.76	-12.05	1.052181	100	1	80	0	0	0	0	0	0	0	0	0	0	0	0;
	6332	96	-1.99470716	96.56	-27.95	1.062214	100	1	200	0	0	0	0	0	0	0	0	0	0	0	0;
	6351	22.08	19.9518543	38.29	-11.56	1.064446	100	1	80	0	0	0	0	0	0	0	0	0	0	0	0;
	6368	-145.3	10.8595298	51.11	-23.46	1.043835	100	1	100	-193.73	0	0	0	0	0	0	0	0	0	0	0;
	6376	-27.8	-10.9209618	148.65	-50.73	1.046714	100	1	100	-37.07	0	0	0	0	0	0	0	0	0	0	0;
	6429	171	22.6543954	88.83	-35.69	1.039574	100	1	200	0	0	0	0	0	0	0	0	0	0	0	0;
	6474	718.5	-4.41713259	438.72	-174.15	1.06557	100	1	1000	333.33	0	0	0	0	0	0	0	0	0	0	0;
	6516	228.2	16.5213687	126.73	-47.83	1.052452	100	1	280	0	0	0	0	0	0	0	0	0	0	0	0;
	6552	-204.2	21.3714494	37.58	-12.16	1.048796	100	1	100	-272.27	0	0	0	0	0	0	0	0	0	0	0;
	6734	382.7	-55.1983591	311.52	-132.09	1.061492	100	1	720	0	0	0	0	0	0	0	0	0	0	0	0;
	6807	44.07	33.1981527	77.14	-22.46	1.006037	100	1	160	0	0	0	0	0	0	0	0	0	0	0	0;
	6816	16.53	4.63033171	77.35	-22.26	1.053803	100	1	160	0	0	0	0	0	0	0	0	0	0	0	0;
	6820	15.9	-0.292037141	11.99	-9.06	1.049557	100	1	32.53	0	0	0	0	0	0	0	0	0	0	0	0;
	6831	-57.5	8.67793257	35.62	-14.25	1.031347	100	1	100	-76.67	0	0	0	0	0	0	0	0	0	0	0;
	6845	102.9	18.2364781	53.24	-21.47	1.055216	100	1	120	0	0	0	0	0	0	0	0	0	0	0	0;
	6852	-344.9	10.964047	18.56	-6.34	1.031296	100	1	100	-459.87	0	0	0	0	0	0	0	0	0	0	0;
	6857	2463.6	541.773668	1865.83	-585.95	1.021411	100	1	4000	1333.33	0	0	0	0	0	0	0	0	0	0	0;
	6888	133	15.248063	189.31	-59.87	1.039234	100	1	300	88.67	0	0	0	0	0	0	0	0	0	0	0;
	6947	227.5	6.10440601	126.09	-48.29	1.051367	100	1	280	0	0	0	0	0	0	0	0	0	0	0	0;
...
];

%% branch data
%	fbus	tbus	r	x	b	rateA	rateB	rateC	ratio	angle	status	angmin	angmax	Pf	Qf	Pt	Qt
mpc.branch = [
	7351	5441	0.00018	0.000781	0	0	0	0	0	0	1	-360	360	-61.6700	-16.2462	61.6768	16.2757;
	4314	7571	0.002961	0.01669	0	319	0	0	0	0	1	-360	360	-26.1300	-0.8471	26.1486	0.9517;
	5803	3916	0.00056	0.00432	0	0	0	0	0	0	1	-360	360	-0.0000	0.3813	0.0000	-0.3813;
	6757	6036	0.0002	0.00246	0	657	0	0	0	0	1	-360	360	-223.6083	-135.6370	223.7347	137.1924;
	6757	6921	0.0003	0.00377	0	1315	0	0	0	0	1	-360	360	223.6083	142.7444	-223.4131	-140.2917;
	5019	9112	0.00014	0.00057	0	0	0	0	0	0	1	-360	360	49.4000	3.1845	-49.3969	-3.1718;
	2930	9112	0.00013	0.000729	0	0	0	0	0	0	1	-360	360	53.2000	2.7818	-53.1966	-2.7630;
	1436	9112	0.00012	0.000581	0	0	0	0	0	0	1	-360	360	49.4000	3.2020	-49.3973	-3.1890;
	1851	9112	0.00011	0.00064	0	0	0	0	0	0	1	-360	360	15.6000	-0.9939	-15.5998	0.9953;
	8331	9112	0.00019	0.00056	0	0	0	0	0	0	1	-360	360	0.0000	0.0549	0.0000	-0.0549;
	6220	8791	0.00062	0.004909	0	529	0	0	0	0	1	-360	360	-231.9000	-27.2011	232.2051	29.6165;
	9203	7842	7e-05	0.00076	0	887	0	0	0	0	1	-360	360	-164.9802	-33.5632	165.0000	33.7779;
	9203	8997	0.00066	0.00622	0	1611	0	0	0	0	1	-360	360	174.1313	53.4205	-173.9130	-51.3633;
	9203	2129	0.00054	0.00752	0	0	0	0	0	0	1	-360	360	-1025.3061	-86.1806	1031.0054	165.5485;
	9203	29	0.00105	0.00877	0	1315	0	0	0	0	1	-360	360	250.2380	66.3906	-249.5364	-60.5304;
	118	8903	8e-05	0.00091	0	657	0	0	0	0	1	-360	360	-16.9998	-1.3088	17.0000	1.3113;
	118	4598	0.00056	0.00719	0	953	0	0	0	0	1	-360	360	-865.6899	31.4271	869.7271	20.4073;
	2426	5533	0.000531	0.002039	0	319	0	0	0	0	1	-360	360	-92.1238	-2.6481	92.1657	2.8090;
	2426	4831	0.008659	0.03769	0	300	0	0	0	0	1	-360	360	107.5066	15.8749	-106.5569	-11.7413;
	2426	8961	0.003849	0.021099	0	0	0	0	0	0	1	-360	360	38.5845	4.0595	-38.5307	-3.7646;
	2426	8522	0.00688	0.035969	0	300	0	0	0	0	1	-360	360	106.9863	33.2508	-106.1844	-29.0580;
	2426	6888	0.006729	0.03713	0	0	0	0	0	0	1	-360	360	-5.0666	-3.4018	5.0690	3.4147;
	2426	3401	0.00111	0.006651	0	414	0	0	0	0	1	-360	360	106.2847	29.0268	-106.1596	-28.2770;
	2426	641	0.0023	0.008909	0	0	0	0	0	0	1	-360	360	45.3708	17.9039	-45.3200	-17.7071;
	2426	2600	0.000841	0.00313	0	0	0	0	0	0	1	-360	360	-76.4321	-16.9839	76.4800	17.1621;
	2426	5351	0.003521	0.017479	0	300	0	0	0	0	1	-360	360	42.1895	10.1929	-42.1279	-9.8871;
	3051	718	3.9e-05	0.00025	0	510	0	0	0	0	1	-360	360	0.0000	0.0000	0.0000	0.0000;
	3036	2327	0.000159	0.000729	0	357	0	0	0	0	1	-360	360	-116.9300	-29.9383	116.9512	30.0354;
	8651	7473	0.005281	0.032099	0	395	0	0	0	0	1	-360	360	-77.6349	-20.0082	77.9590	21.9783;
	8651	7473	0.005651	0.029419	0	376	0	0	0	0	1	-360	360	-84.8551	-19.4676	85.2641	21.5968;
	903	3654	0.000271	0.00036	0	0	0	0	0	0	1	-360	360	-82.6900	-18.5357	82.7069	18.5582;
	8732	7050	0.00044	0.00143	0	472	0	0	0	0	1	-360	360	112.6441	-15.4199	-112.5913	15.5915;
	8732	3912	0.000159	0.00074	0	453	0	0	0	0	1	-360	360	-178.9141	10.0589	178.9615	-9.8383;
	2273	1973	0.00019	0.000591	0	338	0	0	0	0	1	-360	360	-141.3000	-24.0076	141.3339	24.1130;
	5131	2928	0.00019	0.00087	0	0	0	0	0	0	1	-360	360	0.0000	9.0303	0.0001	-9.0297;
	6629	4918	0.002591	0.013659	0	319	0	0	0	0	1	-360	360	-53.5717	-11.9437	53.6421	12.3148;
	6629	7309	0.00305	0.01168	0	0	0	0	0	0	1	-360	360	-9.0583	-2.1053	9.0607	2.1144;
	413	1102	0.000159	0.000599	0	433	0	0	0	0	1	-360	360	117.4183	12.8713	-117.3982	-12.7955;
	413	1102	0.000159	0.00062	0	395	0	0	0	0	1	-360	360	113.5817	13.4192	-113.5629	-13.3457;
	3248	4918	0.00101	0.004229	0	472	0	0	0	0	1	-360	360	-140.7375	-23.5560	140.9228	24.3317;
	3248	4281	0.00319	0.018651	0	453	0	0	0	0	1	-360	360	47.4863	12.4869	-47.4170	-12.0818;
	3248	7309	0.000729	0.00337	0	0	0	0	0	0	1	-360	360	9.0612	0.6518	-9.0607	-0.6493;
	1146	1187	0.002961	0.012831	0	281	0	0	0	0	1	-360	360	-105.8852	-33.0418	106.2269	34.5226;
	1146	7945	0.000591	0.00339	0	0	0	0	0	0	1	-360	360	73.0452	34.5450	-73.0090	-34.3374;
	8900	2421	0.00024	0.001219	0	0	0	0	0	0	1	-360	360	-3.1000	-1.5012	3.1000	1.5013;
	6071	2972	0.006219	0.036341	0	376	0	0	0	0	1	-360	360	-65.0478	5.0347	65.2946	-3.5924;
	6071	6031	0.001841	0.01193	0	472	0	0	0	0	1	-360	360	-98.4522	-35.7116	98.6404	36.9316;
	3293	7264	0.001409	0.01113	0	414	0	0	0	0	1	-360	360	-96.0844	-29.0666	96.2161	30.1070;
	3293	283	0.00151	0.00768	0	376	0	0	0	0	1	-360	360	150.4199	12.8696	-150.1007	-11.2459;
	3293	3069	0.00599	0.03313	0	395	0	0	0	0	1	-360	360	-97.6486	28.5888	98.2238	-25.4073;
	3293	3390	0.001771	0.010151	0	357	0	0	0	0	1	-360	360	10.1730	-19.1298	-10.1653	19.1740;
	4689	4936	0.00074	0.00311	0	0	0	0	0	0	1	-360	360	-55.2026	9.7822	55.2238	-9.6933;
	4689	4936	0.000729	0.003159	0	0	0	0	0	0	1	-360	360	-54.4974	9.2755	54.5176	-9.1877;
	3218	7809	0.005271	0.01906	0	281	0	0	0	0	1	-360	360	30.0030	10.9343	-29.9521	-10.7506;
	3218	5455	0.00906	0.053151	0	319	0	0	0	0	1	-360	360	-114.9577	-4.1623	116.0911	10.8111;
	3218	1857	0.00405	0.0153	0	0	0	0	0	0	1	-360	360	-22.4452	5.3006	22.4656	-5.2237;
	6806	5410	0.00055	0.003961	0	395	0	0	0	0	1	-360	360	55.4059	15.3903	-55.3893	-15.2706;
	6806	5410	0.00055	0.003729	0	338	0	0	0	0	1	-360	360	58.9178	15.8298	-58.8992	-15.7030;
	6806	1609	0.00107	0.007789	0	414	0	0	0	0	1	-360	360	-148.6284	-26.7970	148.8513	28.4198;
	6806	1609	0.00112	0.00775	0	472	0	0	0	0	1	-360	360	-149.4137	-25.8594	149.6489	27.4872;
	6806	1609	0.001031	0.00775	0	0	0	0	0	0	1	-360	360	-149.3462	-27.5843	149.5634	29.2171;
	6806	2438	0.00062	0.003219	0	0	0	0	0	0	1	-360	360	0.0000	-1.1495	-0.0000	1.1496;
	6806	954	0.00068	0.002659	0	414	0	0	0	0	1	-360	360	197.2244	39.2030	-196.9733	-38.2209;
	9140	502	0.00193	0.012479	0	491	0	0	0	0	1	-360	360	223.5451	19.1670	-222.6632	-13.4651;
	9140	3013	0.001159	0.007229	0	0	0	0	0	0	1	-360	360	2.2001	0.3622	-2.2000	-0.3619;
	9140	2949	0.00137	0.008729	0	395	0	0	0	0	1	-360	360	-86.3886	8.2857	86.4822	-7.6889;
	9140	2949	0.001401	0.00855	0	433	0	0	0	0	1	-360	360	-88.0430	9.0435	88.1426	-8.4355;
	9140	2949	0.001331	0.008521	0	433	0	0	0	0	1	-360	360	-88.5136	8.4245	88.6091	-7.8130;
	7070	2208	0.00031	0.00081	0	281	0	0	0	0	1	-360	360	74.9974	23.6780	-74.9800	-23.6327;
	7070	8060	0.000341	0.00119	0	281	0	0	0	0	1	-360	360	0.0006	-13.2802	-0.0000	13.2821;
	7070	4484	0.00031	0.001281	0	376	0	0	0	0	1	-360	360	-102.6934	-5.1759	102.7230	5.2985;
	7070	4239	0.00094	0.0035	0	433	0	0	0	0	1	-360	360	-115.2045	-4.3108	115.3176	4.7319;
	8535	7047	7e-05	0.000651	0	0	0	0	0	0	1	-360	360	-72.6800	-20.9556	72.6837	20.9903;
	5477	3657	0.00019	0.00124	0	491	0	0	0	0	1	-360	360	-136.4475	3.3978	136.4782	-3.1976;
	5477	2928	0.000331	0.002539	0	433	0	0	0	0	1	-360	360	136.4475	17.3873	-136.3932	-16.9708;
	3145	2918	0.0016	0.02113	0	0	0	0	0	0	1	-360	360	-1096.8206	66.0191	1116.4122	192.7122;
	7770	5317	0.000909	0.004711	0	357	0	0	0	0	1	-360	360	14.5665	48.9352	-14.5442	-48.8197;
	7770	5317	0.00088	0.004969	0	319	0	0	0	0	1	-360	360	13.1346	46.7330	-13.1151	-46.6228;
	3	8676	0.001841	0.0088	0	0	0	0	0	0	1	-360	360	11.1783	-26.4952	-11.1635	26.5656;
	3	8189	0.01013	0.04238	0	395	0	0	0	0	1	-360	360	-162.1783	-17.4572	164.7858	28.3663;
	7267	2938	0.00059	0.00802	0	723	0	0	0	0	1	-360	360	-50.0385	48.3202	50.0666	-47.9379;
	7267	2938	0.00054	0.0079	0	657	0	0	0	0	1	-360	360	-51.0710	48.8081	51.0976	-48.4196;
	7267	3918	0.00171	0.02128	0	986	0	0	0	0	1	-360	360	-502.5088	-7.8975	506.7643	60.8547;
	7267	3918	0.00174	0.02084	0	854	0	0	0	0	1	-360	360	-513.0101	-6.4640	517.5227	60.5118;
	7267	6581	0.00086	0.01433	0	1151	0	0	0	0	1	-360	360	-679.0076	-177.7094	683.1819	247.2644;
	7267	6581	0.00087	0.01404	0	723	0	0	0	0	1	-360	360	-693.3019	-180.0107	697.6999	250.9855;
	7267	3830	0.00126	0.01447	0	1118	0	0	0	0	1	-360	360	743.8395	73.1336	-736.9042	6.5124;
	7267	5648	0.00122	0.01509	0	1052	0	0	0	0	1	-360	360	676.8021	69.7478	-671.2376	-0.9206;
	7267	5648	0.00154	0.019	0	1282	0	0	0	0	1	-360	360	537.5258	55.2844	-533.0953	-0.6229;
	4918	4907	0.00474	0.03564	0	472	0	0	0	0	1	-360	360	125.8762	31.6738	-125.1600	-26.2883;
	4918	5957	0.006	0.047849	0	433	0	0	0	0	1	-360	360	210.5986	53.1217	-208.0600	-32.8771;
	4918	5233	0.008039	0.03375	0	281	0	0	0	0	1	-360	360	1.2919	50.6627	-1.1067	-49.8853;
	6854	7309	2.1e-05	0.000211	0	510	0	0	0	0	1	-360	360	0.0000	0.0000	0.0000	0.0000;
	8311	3680	0.00045	0.002341	0	0	0	0	0	0	1	-360	360	-8.7500	6.0725	8.7505	-6.0701;
	2770	8804	0.000669	0.004281	0	433	0	0	0	0	1	-360	360	-85.3900	-13.9157	85.4356	14.2075;
	9241	8804	0.00068	0.00419	0	0	0	0	0	0	1	-360	360	-0.0000	0.3962	0.0000	-0.3962;
	3083	7124	0.000729	0.00431	0	510	0	0	0	0	1	-360	360	-219.4332	-47.6623	219.7554	49.5669;
	3083	7124	0.000591	0.004651	0	453	0	0	0	0	1	-360	360	-202.5860	-52.8194	202.8131	54.6060;
	3083	8873	0.00099	0.005081	0	338	0	0	0	0	1	-360	360	-145.9507	-29.0047	146.1428	29.9907;
	1566	7582	0.00212	0.013031	0	0	0	0	0	0	1	-360	360	-42.2551	10.6552	42.2927	-10.4243;
	1566	3541	0.002159	0.01275	0	0	0	0	0	0	1	-360	360	-114.6449	-3.9979	114.9101	5.5638;
	8683	3698	0.00025	0.00095	0	0	0	0	0	0	1	-360	360	77.5712	-4.8252	-77.5573	4.8780;
	8683	3698	0.000271	0.00089	0	0	0	0	0	0	1	-360	360	81.6521	-8.2234	-81.6353	8.2786;
	8683	2801	0.001961	0.012409	0	281	0	0	0	0	1	-360	360	35.3527	2.4823	-35.3300	-2.3388;
	8683	8328	0.00044	0.00207	0	472	0	0	0	0	1	-360	360	130.7522	4.1711	-130.6828	-3.8448;
	8683	8511	0.000469	0.00143	0	529	0	0	0	0	1	-360	360	297.5073	-30.2456	-297.1210	31.4234;
	8683	6570	0.001271	0.01406	0	529	0	0	0	0	1	-360	360	-471.2571	32.4714	473.8694	-3.5739;
	8683	6570	0.00124	0.013021	0	529	0	0	0	0	1	-360	360	-508.4607	37.4834	511.4296	-6.3077;
	8683	8975	0.000409	0.00239	0	0	0	0	0	0	1	-360	360	0.0005	-11.9890	-0.0000	11.9921;
	8683	216	0.00094	0.005	0	338	0	0	0	0	1	-360	360	125.6306	31.1757	-125.4855	-30.4040;
	8683	2961	0.000219	0.0007	0	529	0	0	0	0	1	-360	360	313.3646	15.4688	-313.1661	-14.8341;
	8683	6773	6e-05	0.00025	0	0	0	0	0	0	1	-360	360	0.0000	-2.3668	-0.0000	2.3668;
	8683	5278	5e-05	0.000229	0	0	0	0	0	0	1	-360	360	-119.3934	-11.2828	119.4000	11.3131;
	3768	2751	0.00019	0.000909	0	0	0	0	0	0	1	-360	360	-19.8200	-10.8457	19.8209	10.8500;
	2276	5546	0.001711	0.00782	0	0	0	0	0	0	1	-360	360	-21.4928	-2.5550	21.5000	2.5880;
	2276	6816	0.002651	0.01176	0	319	0	0	0	0	1	-360	360	60.3928	-18.4356	-60.2975	18.8583;
	7766	444	0.001409	0.010599	0	0	0	0	0	0	1	-360	360	-84.3728	-17.8302	84.4710	18.5687;
	7766	5334	0.001419	0.010219	0	0	0	0	0	0	1	-360	360	5.4828	-6.0621	-5.4819	6.0685;
	839	3918	0.00013	0.00212	0	756	0	0	0	0	1	-360	360	425.1660	13.4109	-424.9416	-9.7521;
	839	809	0.00026	0.00313	0	1282	0	0	0	0	1	-360	360	-772.3265	-41.2921	773.8100	59.1507;
	4506	2286	0.0047	0.0318	0	376	0	0	0	0	1	-360	360	168.6318	21.9585	-167.3655	-13.3911;
	4506	6802	0.00136	0.00768	0	338	0	0	0	0	1	-360	360	39.1281	14.1762	-39.1062	-14.0523;
	4506	3520	0.005669	0.027789	0	300	0	0	0	0	1	-360	360	-32.8063	-2.9204	32.8636	3.2012;
	7273	6271	0.004409	0.033091	0	281	0	0	0	0	1	-360	360	-244.1134	5.1243	246.5313	13.0233;
	7273	1435	0.01056	0.044469	0	0	0	0	0	0	1	-360	360	0.0017	-4.1925	-0.0000	4.1996;
	7273	7148	0.01963	0.07736	0	338	0	0	0	0	1	-360	360	-25.5481	-4.1537	25.6690	4.6305;
	7273	7437	0.01157	0.04694	0	357	0	0	0	0	1	-360	360	50.0597	-13.7302	-49.7729	14.8936;
	6104	871	0.000479	0.00255	0	357	0	0	0	0	1	-360	360	-93.1200	-4.7892	93.1573	4.9879;
	7580	871	0.000469	0.00236	0	0	0	0	0	0	1	-360	360	0.0000	0.1898	0.0000	-0.1898;
	1188	1539	0.01237	0.067039	0	281	0	0	0	0	1	-360	360	28.4602	-12.3194	-28.3532	12.8994;
	1188	8515	0.0132	0.056229	0	281	0	0	0	0	1	-360	360	-59.3902	15.8241	59.8388	-13.9133;
	3971	4084	0.00026	0.001711	0	0	0	0	0	0	1	-360	360	-66.4935	4.6083	66.5037	-4.5410;
	3971	4084	0.000271	0.001669	0	0	0	0	0	0	1	-360	360	-68.0065	5.4082	68.0177	-5.3395;
	6845	5340	0.000211	0.000401	0	0	0	0	0	0	1	-360	360	102.9000	18.2365	-102.8793	-18.1971;
	8294	5814	0.00105	0.005159	0	0	0	0	0	0	1	-360	360	-14.2200	-5.8861	14.2223	5.8973;
	7115	6807	0.00212	0.00931	0	319	0	0	0	0	1	-360	360	65.8700	14.2720	-65.7754	-13.8563;
	619	6791	0.000151	0.00068	0	0	0	0	0	0	1	-360	360	-72.8800	-11.1650	72.8875	11.1988;
	5418	4908	0.00019	0.00082	0	0	0	0	0	0	1	-360	360	0.0000	4.2631	0.0000	-4.2629;
	5120	6816	0.003219	0.01405	0	300	0	0	0	0	1	-360	360	75.6000	-3.9091	-75.4344	4.6317;
	6692	9158	0.007271	0.033159	0	281	0	0	0	0	1	-360	360	-54.8255	3.1417	55.0368	-2.1779;
	6692	8035	0.006659	0.03132	0	300	0	0	0	0	1	-360	360	44.4955	-1.6170	-44.3682	2.2155;
	3445	2848	0.00057	0.00668	0	1480	0	0	0	0	1	-360	360	493.6979	1.4692	-492.3063	14.8401;
	3445	7056	0.00057	0.00758	0	1414	0	0	0	0	1	-360	360	-375.2828	-63.1475	376.1097	74.1437;
	3445	7056	0.00039	0.00607	0	821	0	0	0	0	1	-360	360	-468.1083	-84.0209	468.9919	97.7735;
	3445	1642	0.00155	0.0179	0	0	0	0	0	0	1	-360	360	-661.6706	-67.5061	668.5388	146.8228;
	3445	4594	0.00036	0.00485	0	1545	0	0	0	0	1	-360	360	-92.6175	27.0001	92.6510	-26.5480;
	6114	1692	0.000581	0.004229	0	338	0	0	0	0	1	-360	360	83.2301	25.7302	-83.1900	-25.4382;
	6114	8190	0.00056	0.00431	0	0	0	0	0	0	1	-360	360	0.0000	-0.3518	0.0000	0.3518;
	6114	5836	0.003099	0.020531	0	472	0	0	0	0	1	-360	360	169.2606	19.8594	-168.4419	-14.4353;
	6114	3191	0.00118	0.016919	0	510	0	0	0	0	1	-360	360	208.2066	37.5948	-207.7261	-30.7057;
	6114	5300	0.00188	0.01407	0	0	0	0	0	0	1	-360	360	103.7336	12.3270	-103.5470	-10.9303;
	6114	4889	0.00545	0.04082	0	357	0	0	0	0	1	-360	360	89.9280	26.1537	-89.4931	-22.8969;
	7264	444	0.00214	0.01639	0	453	0	0	0	0	1	-360	360	141.5659	25.2615	-141.1589	-22.1445;
	7264	4747	0.002479	0.01549	0	0	0	0	0	0	1	-360	360	165.4864	24.4162	-164.8484	-20.4299;
	7982	9011	0.000159	0.001229	0	472	0	0	0	0	1	-360	360	-160.6771	8.6705	160.7155	-8.3740;
	7982	6675	0.00026	0.00162	0	453	0	0	0	0	1	-360	360	185.8381	19.5090	-185.7536	-18.9820;
	7982	6909	0.000159	0.00113	0	376	0	0	0	0	1	-360	360	-5.8286	-3.0484	5.8286	3.0489;
	7982	8835	0.000461	0.003219	0	472	0	0	0	0	1	-360	360	-131.3325	1.4286	131.4066	-0.9112;
	7982	4186	0.000159	0.001229	0	0	0	0	0	0	1	-360	360	0.0000	-5.4312	-0.0000	5.4316;
	1604	502	0.000229	0.00139	0	376	0	0	0	0	1	-360	360	50.6000	14.0313	-50.5942	-13.9961;
	2842	502	0.0002	0.00156	0	338	0	0	0	0	1	-360	360	31.6000	5.8338	-31.5981	-5.8190;
	1354	513	0.00145	0.00824	0	281	0	0	0	0	1	-360	360	20.3550	29.6997	-20.3377	-29.6012;
	1354	502	0.00069	0.005	0	491	0	0	0	0	1	-360	360	-266.8550	-14.0141	267.3096	17.3085;
	891	3697	0.00036	0.00455	0	1809	0	0	0	0	1	-360	360	712.5986	333.9063	-710.6312	-309.0410;
	891	3697	0.00036	0.00453	0	1776	0	0	0	0	1	-360	360	715.8414	335.1228	-713.8567	-310.1491;
	8312	7541	0.00066	0.00997	0	1348	0	0	0	0	1	-360	360	859.4209	235.9761	-854.9109	-167.8485;
	8312	7541	0.00064	0.01016	0	986	0	0	0	0	1	-360	360	842.7791	234.3033	-838.5661	-167.4221;
	6306	4826	9.9e-05	0.00044	0	529	0	0	0	0	1	-360	360	273.8041	2.9715	-273.7401	-2.6870;
	4826	4418	6e-05	0.000469	0	0	0	0	0	0	1	-360	360	0.0000	-0.0580	0.0000	0.0580;
	4826	1605	3.9e-05	0.000341	0	0	0	0	0	0	1	-360	360	0.0000	-0.0580	-0.0000	0.0580;
	4826	6952	0.002531	0.01943	0	433	0	0	0	0	1	-360	360	81.7760	2.2671	-81.6299	-1.1452;
	4826	7124	0.00945	0.06418	0	414	0	0	0	0	1	-360	360	88.3641	-2.4586	-87.7270	6.7852;
	9128	217	0.000591	0.002831	0	357	0	0	0	0	1	-360	360	-50.5600	-8.4936	50.5743	8.5621;
	7014	217	0.00087	0.00387	0	0	0	0	0	0	1	-360	360	-0.0000	0.3262	0.0000	-0.3262;
	720	5350	0.0015	0.01785	0	1183	0	0	0	0	1	-360	360	-217.5277	25.6771	218.2747	-16.7882;
	720	5350	0.00147	0.0182	0	1151	0	0	0	0	1	-360	360	-213.4821	24.4980	214.1866	-15.7754;
	1711	639	0.00151	0.0113	0	376	0	0	0	0	1	-360	360	38.4195	6.3676	-38.3989	-6.2130;
	1711	639	0.001479	0.011521	0	395	0	0	0	0	1	-360	360	37.6753	6.4444	-37.6558	-6.2925;
	1711	9130	0.00174	0.010341	0	414	0	0	0	0	1	-360	360	177.0283	-0.8751	-176.5361	3.8001;
	1711	9130	0.001659	0.01206	0	453	0	0	0	0	1	-360	360	152.4469	3.8201	-152.0987	-1.2889;
	8209	1998	0.00069	0.000479	0	0	0	0	0	0	1	-360	360	25.7344	4.2930	-25.7300	-4.2900;
	8209	7974	0.00044	0.00139	0	0	0	0	0	0	1	-360	360	-109.1244	-3.2493	109.1735	3.4044;
	1035	8180	0.002039	0.01601	0	0	0	0	0	0	1	-360	360	-204.6106	-21.2765	205.3678	27.2218;
	1035	7466	0.01349	0.05662	0	357	0	0	0	0	1	-360	360	112.8737	-4.3000	-111.3633	10.6393;
	1035	305	0.00082	0.00438	0	300	0	0	0	0	1	-360	360	51.9770	5.5979	-51.9574	-5.4928;
	1035	305	0.0008	0.004461	0	281	0	0	0	0	1	-360	360	51.0612	5.8935	-51.0426	-5.7901;
	1035	5106	0.001091	0.00888	0	453	0	0	0	0	1	-360	360	-174.2975	-18.6223	174.5917	21.0166;
	1035	5106	0.00111	0.007039	0	491	0	0	0	0	1	-360	360	-219.5037	-15.8936	219.9755	18.8853;
	2527	8466	0.000849	0.00537	0	433	0	0	0	0	1	-360	360	-59.7700	-16.0025	59.7998	16.1912;
	8669	8893	0.00061	0.00275	0	357	0	0	0	0	1	-360	360	-74.9800	3.8069	75.0111	-3.6665;
	6206	7691	0.00141	0.0188	0	1315	0	0	0	0	1	-360	360	397.5150	43.1275	-395.4210	-15.2079;
	6206	6624	0.00121	0.01427	0	1545	0	0	0	0	1	-360	360	-574.2283	-83.7269	578.0132	128.3635;
	3240	8158	0.001711	0.007159	0	338	0	0	0	0	1	-360	360	-152.6384	3.5438	153.0000	-2.0310;
	3240	8795	0.00545	0.02381	0	300	0	0	0	0	1	-360	360	-80.1014	2.0410	80.4186	-0.6552;
	3240	4143	0.000771	0.004331	0	0	0	0	0	0	1	-360	360	11.1109	3.2231	-11.1100	-3.2178;
	3240	2797	0.00414	0.03282	0	453	0	0	0	0	1	-360	360	196.2330	6.8281	-194.7861	4.6423;
	3240	6331	0.00264	0.011521	0	338	0	0	0	0	1	-360	360	-48.7423	-5.8161	48.8000	6.0678;
	3240	6384	0.00261	0.011	0	376	0	0	0	0	1	-360	360	101.2929	46.5694	-100.9988	-45.3300;
	3240	7523	0.00239	0.00919	0	319	0	0	0	0	1	-360	360	-85.4317	1.3164	85.5899	-0.7082;
	3240	2889	0.000539	0.00226	0	0	0	0	0	0	1	-360	360	-8.8777	7.6579	8.8784	-7.6551;
...
];

%%-----  OPF Data  -----%%
%% generator cost data
%	1	startup	shutdown	n	x1	y1	...	xn	yn
%	2	startup	shutdown	n	c(n-1)	...	c0
mpc.gencost = [
	2	0	0	3	0	1	0;
	2	0	0	3	0	1	0;
	2	0	0	3	0	1	0;
	2	0	0	3	0	1	0;
	2	0	0	3	0	1	0;
	2	0	0	3	0	1	0;
	2	0	0	3	0	1	0;
	2	0	0	3	0	1	0;
	2	0	0	3	0	1	0;
	2	0	0	3	0	1	0;
	2	0	0	3	0	1	0;
	2	0	0	3	0	1	0;
	2	0	0	3	0	1	0;
	2	0	0	3	0	1	0;
	2	0	0	3	0	1	0;
	2	0	0	3	0	1	0;
	2	0	0	3	0	1	0;
	2	0	0	3	0	1	0;
	2	0	0	3	0	1	0;
	2	0	0	3	0	1	0;
	2	0	0	3	0	1	0;
	2	0	0	3	0	1	0;
	2	0	0	3	0	1	0;
	2	0	0	3	0	1	0;
	2	0	0	3	0	1	0;
	2	0	0	3	0	1	0;
	2	0	0	3	0	1	0;
	2	0	0	3	0	1	0;
	2	0	0	3	0	1	0;
	2	0	0	3	0	1	0;
	2	0	0	3	0	1	0;
	2	0	0	3	0	1	0;
	2	0	0	3	0	1	0;
	2	0	0	3	0	1	0;
	2	0	0	3	0	1	0;
	2	0	0	3	0	1	0;
	2	0	0	3	0	1	0;
	2	0	0	3	0	1	0;
	2	0	0	3	0	1	0;
	2	0	0	3	0	1	0;
	2	0	0	3	0	1	0;
	2	0	0	3	0	1	0;
	2	0	0	3	0	1	0;
	2	0	0	3	0	1	0;
	2	0	0	3	0	1	0;
	2	0	0	3	0	1	0;
	2	0	0	3	0	1	0;
	2	0	0	3	0	1	0;
	2	0	0	3	0	1	0;
	2	0	0	3	0	1	0;
	2	0	0	3	0	1	0;
	2	0	0	3	0	1	0;
	2	0	0	3	0	1	0;
	2	0	0	3	0	1	0;
	2	0	0	3	0	1	0;
	2	0	0	3	0	1	0;
	2	0	0	3	0	1	0;
	2	0	0	3	0	1	0;
	2	0	0	3	0	1	0;
	2	0	0	3	0	1	0;
	2	0	0	3	0	1	0;
	2	0	0	3	0	1	0;
	2	0	0	3	0	1	0;
	2	0	0	3	0	1	0;
	2	0	0	3	0	1	0;
	2	0	0	3	0	1	0;
	2	0	0	3	0	1	0;
	2	0	0	3	0	1	0;
	2	0	0	3	0	1	0;
	2	0	0	3	0	1	0;
	2	0	0	3	0	1	0;
	2	0	0	3	0	1	0;
	2	0	0	3	0	1	0;
	2	0	0	3	0	1	0;
	2	0	0	3	0	1	0;
	2	0	0	3	0	1	0;
	2	0	0	3	0	1	0;
	2	0	0	3	0	1	0;
	2	0	0	3	0	1	0;
	2	0	0	3	0	1	0;
	2	0	0	3	0	1	0;
	2	0	0	3	0	1	0;
	2	0	0	3	0	1	0;
	2	0	0	3	0	1	0;
	2	0	0	3	0	1	0;
	2	0	0	3	0	1	0;
	2	0	0	3	0	1	0;
	2	0	0	3	0	1	0;
	2	0	0	3	0	1	0;
	2	0	0	3	0	1	0;
	2	0	0	3	0	1	0;
	2	0	0	3	0	1	0;
	2	0	0	3	0	1	0;
	2	0	0	3	0	1	0;
	2	0	0	3	0	1	0;
	2	0	0	3	0	1	0;
	2	0	0	3	0	1	0;
	2	0	0	3	0	1	0;
	2	0	0	3	0	1	0;
	2	0	0	3	0	1	0;
	2	0	0	3	0	1	0;
	2	0	0	3	0	1	0;
	2	0	0	3	0	1	0;
	2	0	0	3	0	1	0;
	2	0	0	3	0	1	0;
	2	0	0	3	0	1	0;
	2	0	0	3	0	1	0;
	2	0	0	3	0	1	0;
	2	0	0	3	0	1	0;
	2	0	0	3	0	1	0;
	2	0	0	3	0	1	0;
	2	0	0	3	0	1	0;
	2	0	0	3	0	1	0;
	2	0	0	3	0	1	0;
	2	0	0	3	0	1	0;
	2	0	0	3	0	1	0;
	2	0	0	3	0	1	0;
	2	0	0	3	0	1	0;
	2	0	0	3	0	1	0;
	2	0	0	3	0	1	0;
	2	0	0	3	0	1	0;
	2	0	0	3	0	1	0;
	2	0	0	3	0	1	0;
	2	0	0	3	0	1	0;
	2	0	0	3	0	1	0;
	2	0	0	3	0	1	0;
	2	0	0	3	0	1	0;
	2	0	0	3	0	1	0;
	2	0	0	3	0	1	0;
	2	0	0	3	0	1	0;
	2	0	0	3	0	1	0;
	2	0	0	3	0	1	0;
	2	0	0	3	0	1	0;
	2	0	0	3	0	1	0;
	2	0	0	3	0	1	0;
	2	0	0	3	0	1	0;
	2	0	0	3	0	1	0;
	2	0	0	3	0	1	0;
	2	0	0	3	0	1	0;
	2	0	0	3	0	1	0;
	2	0	0	3	0	1	0;
	2	0	0	3	0	1	0;
	2	0	0	3	0	1	0;
	2	0	0	3	0	1	0;
	2	0	0	3	0	1	0;
	2	0	0	3	0	1	0;
	2	0	0	3	0	1	0;
	2	0	0	3	0	1	0;
	2	0	0	3	0	1	0;
	2	0	0	3	0	1	0;
	2	0	0	3	0	1	0;
	2	0	0	3	0	1	0;
	2	0	0	3	0	1	0;
	2	0	0	3	0	1	0;
	2	0	0	3	0	1	0;
	2	0	0	3	0	1	0;
	2	0	0	3	0	1	0;
	2	0	0	3	0	1	0;
	2	0	0	3	0	1	0;
	2	0	0	3	0	1	0;
	2	0	0	3	0	1	0;
	2	0	0	3	0	1	0;
	2	0	0	3	0	1	0;
	2	0	0	3	0	1	0;
	2	0	0	3	0	1	0;
	2	0	0	3	0	1	0;
	2	0	0	3	0	1	0;
	2	0	0	3	0	1	0;
	2	0	0	3	0	1	0;
	2	0	0	3	0	1	0;
	2	0	0	3	0	1	0;
	2	0	0	3	0	1	0;
	2	0	0	3	0	1	0;
	2	0	0	3	0	1	0;
	2	0	0	3	0	1	0;
	2	0	0	3	0	1	0;
	2	0	0	3	0	1	0;
	2	0	0	3	0	1	0;
	2	0	0	3	0	1	0;
	2	0	0	3	0	1	0;
	2	0	0	3	0	1	0;
	2	0	0	3	0	1	0;
	2	0	0	3	0	1	0;
	2	0	0	3	0	1	0;
	2	0	0	3	0	1	0;
	2	0	0	3	0	1	0;
	2	0	0	3	0	1	0;
	2	0	0	3	0	1	0;
	2	0	0	3	0	1	0;
	2	0	0	3	0	1	0;
	2	0	0	3	0	1	0;
	2	0	0	3	0	1	0;
	2	0	0	3	0	1	0;
	2	0	0	3	0	1	0;
	2	0	0	3	0	1	0;
	2	0	0	3	0	1	0;
	2	0	0	3	0	1	0;
	2	0	0	3	0	1	0;
	2	0	0	3	0	1	0;
	2	0	0	3	0	1	0;
...
];
